opendss_networks/LV10_223bus/Loads.dss
new load.Ld7_LOAD_A phases=1 bus1=B2373.1.4 kv=0.249992666559  vminpu=0.1 vmaxpu=2
new load.Ld120_LOAD_B phases=1 bus1=B2162.2.4 kv=0.249992666559  vminpu=0.1 vmaxpu=2
new load.Ld201_LOAD_C phases=1 bus1=B1657.3.4 kv=0.249992666559  vminpu=0.1 vmaxpu=2
new load.Ld203_LOAD_A phases=1 bus1=B1043.1.4 kv=0.249992666559  vminpu=0.1 vmaxpu=2
new load.Ld286_LOAD_B phases=1 bus1=B3318.2.4 kv=0.249992666559  vminpu=0.1 vmaxpu=2
new load.Ld380_LOAD_C phases=1 bus1=B223.3.4 kv=0.249992666559  vminpu=0.1 vmaxpu=2
new load.Ld387_LOAD_A phases=1 bus1=B1271.1.4 kv=0.249992666559  vminpu=0.1 vmaxpu=2
new load.Ld389_LOAD_B phases=1 bus1=B2331.2.4 kv=0.249992666559  vminpu=0.1 vmaxpu=2
new load.Ld442_LOAD_C phases=1 bus1=B2634.3.4 kv=0.249992666559  vminpu=0.1 vmaxpu=2
new load.Ld466_LOAD_A phases=1 bus1=B1701.1.4 kv=0.249992666559  vminpu=0.1 vmaxpu=2
new load.Ld471_LOAD_B phases=1 bus1=B3397.2.4 kv=0.249992666559  vminpu=0.1 vmaxpu=2
new load.Ld546_LOAD_C phases=1 bus1=B320.3.4 kv=0.249992666559  vminpu=0.1 vmaxpu=2
new load.Ld556_LOAD_A phases=1 bus1=B258.1.4 kv=0.249992666559  vminpu=0.1 vmaxpu=2
new load.Ld561_LOAD_B phases=1 bus1=B651.2.4 kv=0.249992666559  vminpu=0.1 vmaxpu=2
new load.Ld604_LOAD_C phases=1 bus1=B50.3.4 kv=0.249992666559  vminpu=0.1 vmaxpu=2
new load.Ld692_LOAD_A phases=1 bus1=B2897.1.4 kv=0.249992666559  vminpu=0.1 vmaxpu=2
new load.Ld723_LOAD_B phases=1 bus1=B893.2.4 kv=0.249992666559  vminpu=0.1 vmaxpu=2
new load.Ld774_LOAD_C phases=1 bus1=B1435.3.4 kv=0.249992666559  vminpu=0.1 vmaxpu=2
new load.Ld909_LOAD_A phases=1 bus1=B2495.1.4 kv=0.249992666559  vminpu=0.1 vmaxpu=2
new load.Ld1028_LOAD_B phases=1 bus1=B615.2.4 kv=0.249992666559  vminpu=0.1 vmaxpu=2
new load.Ld1086_LOAD_C phases=1 bus1=B1205.3.4 kv=0.249992666559  vminpu=0.1 vmaxpu=2
new load.Ld1119_LOAD_A phases=1 bus1=B2047.1.4 kv=0.249992666559  vminpu=0.1 vmaxpu=2
new load.Ld1128_LOAD_B phases=1 bus1=B2932.2.4 kv=0.249992666559  vminpu=0.1 vmaxpu=2
new load.Ld1143_LOAD_C phases=1 bus1=B3126.3.4 kv=0.249992666559  vminpu=0.1 vmaxpu=2
new load.Ld1174_LOAD_A phases=1 bus1=B1593.1.4 kv=0.249992666559  vminpu=0.1 vmaxpu=2
new load.Ld1186_LOAD_B phases=1 bus1=B1373.2.4 kv=0.249992666559  vminpu=0.1 vmaxpu=2
new load.Ld1282_LOAD_C phases=1 bus1=B563.3.4 kv=0.249992666559  vminpu=0.1 vmaxpu=2
new load.Ld1408_LOAD_A phases=1 bus1=B1000.1.4 kv=0.249992666559  vminpu=0.1 vmaxpu=2
new load.Ld1409_LOAD_B phases=1 bus1=B3238.2.4 kv=0.249992666559  vminpu=0.1 vmaxpu=2
new load.Ld1545_LOAD_C phases=1 bus1=B2659.3.4 kv=0.249992666559  vminpu=0.1 vmaxpu=2
new load.Ld1555_LOAD_A phases=1 bus1=B1213.1.4 kv=0.249992666559  vminpu=0.1 vmaxpu=2
new load.Ld1653_LOAD_B phases=1 bus1=B2763.2.4 kv=0.249992666559  vminpu=0.1 vmaxpu=2
new load.Ld1680_LOAD_C phases=1 bus1=B2946.3.4 kv=0.249992666559  vminpu=0.1 vmaxpu=2
new load.Ld1714_LOAD_A phases=1 bus1=B92.1.4 kv=0.249992666559  vminpu=0.1 vmaxpu=2
new load.Ld1807_LOAD_B phases=1 bus1=B2016.2.4 kv=0.249992666559  vminpu=0.1 vmaxpu=2
new load.Ld1844_LOAD_C phases=1 bus1=B292.3.4 kv=0.249992666559  vminpu=0.1 vmaxpu=2
new load.Ld1867_LOAD_A phases=1 bus1=B3140.1.4 kv=0.249992666559  vminpu=0.1 vmaxpu=2
new load.Ld1874_LOAD_B phases=1 bus1=B1798.2.4 kv=0.249992666559  vminpu=0.1 vmaxpu=2
new load.Ld1920_LOAD_C phases=1 bus1=B2394.3.4 kv=0.249992666559  vminpu=0.1 vmaxpu=2
new load.Ld1927_LOAD_A phases=1 bus1=B2950.1.4 kv=0.249992666559  vminpu=0.1 vmaxpu=2
new load.Ld1982_LOAD_B phases=1 bus1=B1951.2.4 kv=0.249992666559  vminpu=0.1 vmaxpu=2
new load.Ld2056_LOAD_C phases=1 bus1=B1979.3.4 kv=0.249992666559  vminpu=0.1 vmaxpu=2
new load.Ld2067_LOAD_A phases=1 bus1=B646.1.4 kv=0.249992666559  vminpu=0.1 vmaxpu=2
new load.Ld2075_LOAD_B phases=1 bus1=B1948.2.4 kv=0.249992666559  vminpu=0.1 vmaxpu=2
new load.Ld2110_LOAD_C phases=1 bus1=B2637.3.4 kv=0.249992666559  vminpu=0.1 vmaxpu=2
new load.Ld2210_LOAD_A phases=1 bus1=B3089.1.4 kv=0.249992666559  vminpu=0.1 vmaxpu=2
new load.Ld2220_LOAD_B phases=1 bus1=B3262.2.4 kv=0.249992666559  vminpu=0.1 vmaxpu=2
new load.Ld2221_LOAD_C phases=1 bus1=B2000.3.4 kv=0.249992666559  vminpu=0.1 vmaxpu=2
new load.Ld2307_LOAD_A phases=1 bus1=B3226.1.4 kv=0.249992666559  vminpu=0.1 vmaxpu=2
new load.Ld2322_LOAD_B phases=1 bus1=B2801.2.4 kv=0.249992666559  vminpu=0.1 vmaxpu=2
new load.Ld2391_LOAD_C phases=1 bus1=B420.3.4 kv=0.249992666559  vminpu=0.1 vmaxpu=2
new load.Ld2405_LOAD_A phases=1 bus1=B583.1.4 kv=0.249992666559  vminpu=0.1 vmaxpu=2
new load.Ld2807_LOAD_B phases=1 bus1=B2415.2.4 kv=0.249992666559  vminpu=0.1 vmaxpu=2
new load.Ld2814_LOAD_C phases=1 bus1=B1303.3.4 kv=0.249992666559  vminpu=0.1 vmaxpu=2
new load.Ld2880_LOAD_A phases=1 bus1=B20.1.4 kv=0.249992666559  vminpu=0.1 vmaxpu=2
new load.Ld2881_LOAD_B phases=1 bus1=B2584.2.4 kv=0.249992666559  vminpu=0.1 vmaxpu=2
new load.Ld2903_LOAD_C phases=1 bus1=B120.3.4 kv=0.249992666559  vminpu=0.1 vmaxpu=2
new load.Ld2998_LOAD_A phases=1 bus1=B582.1.4 kv=0.249992666559  vminpu=0.1 vmaxpu=2
new load.Ld3002_LOAD_B phases=1 bus1=B1228.2.4 kv=0.249992666559  vminpu=0.1 vmaxpu=2
new load.Ld3061_LOAD_C phases=1 bus1=B35.3.4 kv=0.249992666559  vminpu=0.1 vmaxpu=2
new load.Ld3129_LOAD_A phases=1 bus1=B1403.1.4 kv=0.249992666559  vminpu=0.1 vmaxpu=2
new load.Ld3176_LOAD_B phases=1 bus1=B2908.2.4 kv=0.249992666559  vminpu=0.1 vmaxpu=2
new load.Ld3224_LOAD_C phases=1 bus1=B2233.3.4 kv=0.249992666559  vminpu=0.1 vmaxpu=2
new load.Ld3283_LOAD_A phases=1 bus1=B1954.1.4 kv=0.249992666559  vminpu=0.1 vmaxpu=2
new load.Ld3388_LOAD_B phases=1 bus1=B2797.2.4 kv=0.249992666559  vminpu=0.1 vmaxpu=2
new load.Ld3400_LOAD_C phases=1 bus1=B2279.3.4 kv=0.249992666559  vminpu=0.1 vmaxpu=2
new load.Ld3465_LOAD_A phases=1 bus1=B1424.1.4 kv=0.249992666559  vminpu=0.1 vmaxpu=2
new load.Ld3525_LOAD_B phases=1 bus1=B1857.2.4 kv=0.249992666559  vminpu=0.1 vmaxpu=2
new load.Ld3534_LOAD_C phases=1 bus1=B1348.3.4 kv=0.249992666559  vminpu=0.1 vmaxpu=2
new load.Ld3595_LOAD_A phases=1 bus1=B823.1.4 kv=0.249992666559  vminpu=0.1 vmaxpu=2
new load.Ld3605_LOAD_B phases=1 bus1=B3282.2.4 kv=0.249992666559  vminpu=0.1 vmaxpu=2
new load.Ld3727_LOAD_C phases=1 bus1=B1428.3.4 kv=0.249992666559  vminpu=0.1 vmaxpu=2
new load.Ld3824_LOAD_A phases=1 bus1=B3235.1.4 kv=0.249992666559  vminpu=0.1 vmaxpu=2
new load.Ld3853_LOAD_B phases=1 bus1=B861.2.4 kv=0.249992666559  vminpu=0.1 vmaxpu=2
new load.Ld3872_LOAD_C phases=1 bus1=B2499.3.4 kv=0.249992666559  vminpu=0.1 vmaxpu=2
new load.Ld3914_LOAD_A phases=1 bus1=B1047.1.4 kv=0.249992666559  vminpu=0.1 vmaxpu=2
new load.Ld3939_LOAD_B phases=1 bus1=B2633.2.4 kv=0.249992666559  vminpu=0.1 vmaxpu=2
new load.Ld4068_LOAD_C phases=1 bus1=B1771.3.4 kv=0.249992666559  vminpu=0.1 vmaxpu=2
new load.Ld4134_LOAD_A phases=1 bus1=B165.1.4 kv=0.249992666559  vminpu=0.1 vmaxpu=2
new load.Ld4143_LOAD_B phases=1 bus1=B3261.2.4 kv=0.249992666559  vminpu=0.1 vmaxpu=2
new load.Ld4205_LOAD_C phases=1 bus1=B935.3.4 kv=0.249992666559  vminpu=0.1 vmaxpu=2
new load.Ld4246_LOAD_A phases=1 bus1=B1440.1.4 kv=0.249992666559  vminpu=0.1 vmaxpu=2
new load.Ld4292_LOAD_B phases=1 bus1=B410.2.4 kv=0.249992666559  vminpu=0.1 vmaxpu=2
new load.Ld4299_LOAD_C phases=1 bus1=B965.3.4 kv=0.249992666559  vminpu=0.1 vmaxpu=2
new load.Ld4300_LOAD_A phases=1 bus1=B1191.1.4 kv=0.249992666559  vminpu=0.1 vmaxpu=2
new load.Ld4350_LOAD_B phases=1 bus1=B992.2.4 kv=0.249992666559  vminpu=0.1 vmaxpu=2
new load.Ld4386_LOAD_C phases=1 bus1=B3121.3.4 kv=0.249992666559  vminpu=0.1 vmaxpu=2
new load.Ld4407_LOAD_A phases=1 bus1=B1429.1.4 kv=0.249992666559  vminpu=0.1 vmaxpu=2
new load.Ld4410_LOAD_B phases=1 bus1=B2508.2.4 kv=0.249992666559  vminpu=0.1 vmaxpu=2
new load.Ld4414_LOAD_C phases=1 bus1=B2611.3.4 kv=0.249992666559  vminpu=0.1 vmaxpu=2
new load.Ld4456_LOAD_A phases=1 bus1=B437.1.4 kv=0.249992666559  vminpu=0.1 vmaxpu=2
new load.Ld4458_LOAD_B phases=1 bus1=B529.2.4 kv=0.249992666559  vminpu=0.1 vmaxpu=2
new load.Ld4465_LOAD_C phases=1 bus1=B1775.3.4 kv=0.249992666559  vminpu=0.1 vmaxpu=2
new load.Ld4602_LOAD_A phases=1 bus1=B972.1.4 kv=0.249992666559  vminpu=0.1 vmaxpu=2
